/*--------------------------------*- C++ -*----------------------------------*\
| =========                 |                                                 |
| \\      /  F ield         | foam-extend: Open Source CFD                    |
|  \\    /   O peration     | Version:     4.0                                |
|   \\  /    A nd           | Web:         http://www.foam-extend.org         |
|    \\/     M anipulation  |                                                 |
\*---------------------------------------------------------------------------*/
FoamFile
{
    version     2.0;
    format      ascii;
    class       dictionary;
    object      blockMeshDict;
}
// * * * * * * * * * * * * * * * * * * * * * * * * * * * * * * * * * * * * * //

convertToMeters 1e-2;

vertices
(
    ( 5.08  0.19 -0.2215864878)
    ( 5.23  0.19 -0.2281293959)
    ( 5.08  4.00 -0.2215864878)
    ( 5.23  4.00 -0.2281293959)
    ( 5.08  0.19  0.2215864878)
    ( 5.23  0.19  0.2281293959)
    ( 5.08  4.00  0.2215864878)
    ( 5.23  4.00  0.2281293959)
);

blocks
(
    hex (0 1 3 2 4 5 7 6) (4 28 1) simpleGrading (1 0.1 1)
);

edges
(
);

boundary
(
    outer
    {
        type patch;
        faces
        (
        (0 1 5 4)
        );
    }

    ground 
    {
        type patch;
        faces
        (
        (0 4 6 2)
        (1 3 7 5)
        );
    }

    plasma_2
    {
        type            regionCouple;
        shadowRegion    region0;
        shadowPatch     dielectric_2;
        attached        off;
        isWall          on;
        zone            dielectric_2_Zone;
        master          off;
        bridgeOverlap   off;

        faces
        (
        (2 6 7 3)
        );
    }

    frontandback_d21
    {
        type wedge;
        faces
        (
        (0 2 3 1)
        );
    }

    frontandback_d22
    {
        type wedge;
        faces
        (
        (4 5 7 6)
        );
    }
);

mergePatchPairs
(
);

// ************************************************************************* //
