/*--------------------------------*- C++ -*----------------------------------*\
| =========                 |                                                 |
| \\      /  F ield         | foam-extend: Open Source CFD                    |
|  \\    /   O peration     | Version:     4.0                                |
|   \\  /    A nd           | Web:         http://www.foam-extend.org         |
|    \\/     M anipulation  |                                                 |
\*---------------------------------------------------------------------------*/
FoamFile
{
    version     2.0;
    format      ascii;
    class       polyBoundaryMesh;
    location    "constant/polyMesh";
    object      boundary;
}
// * * * * * * * * * * * * * * * * * * * * * * * * * * * * * * * * * * * * * //

4
(
    electrode
    {
        type            patch;
        nFaces          0;
        startFace       1;
    }
    plasma_1
    {
        type            regionCouple;
        nFaces          1;
        startFace       1;
        shadowRegion    region0;
        shadowPatch     dielectric_1;
        zone            dielectric_1_Zone;
        attached        off;
        master          off;
        isWall          on;
        bridgeOverlap   off;
    }
    otherfaces
    {
        type            empty;
        nFaces          8;
        startFace       2;
    }
    procBoundary0to1
    {
        type            processor;
        nFaces          1;
        startFace       10;
        myProcNo        0;
        neighbProcNo    1;
    }
)


// ************************************************************************* //
