/*--------------------------------*- C++ -*----------------------------------*\
| =========                 |                                                 |
| \\      /  F ield         | foam-extend: Open Source CFD                    |
|  \\    /   O peration     | Version:     4.0                                |
|   \\  /    A nd           | Web:         http://www.foam-extend.org         |
|    \\/     M anipulation  |                                                 |
\*---------------------------------------------------------------------------*/
FoamFile
{
    version     2.0;
    format      ascii;
    class       volScalarField;
    location    "0";
    object      Phi;
}
// * * * * * * * * * * * * * * * * * * * * * * * * * * * * * * * * * * * * * //

dimensions      [ 0 0 0 1 0 0 0 ];

internalField   uniform 0;

boundaryField
{
    ground
    {
        type            fixedValue;
        value           uniform 0; // potential value for ground electrode
    }
    electrode
    {
        type            externalCircuitPotential;
        model		directCurrent; // this can be sinFrequencyModulated for AC potential
	amplitude	70.0;
	R		 0.0;
    }
    otherfaces
    {
        type            empty;
    }
}
