/*--------------------------------*- C++ -*----------------------------------*\
| =========                 |                                                 |
| \\      /  F ield         | OpenFOAM: The Open Source CFD Toolbox           |
|  \\    /   O peration     | Version:  2.4.0                                 |
|   \\  /    A nd           | Web:      www.OpenFOAM.org                      |
|    \\/     M anipulation  |                                                 |
\*---------------------------------------------------------------------------*/
FoamFile
{
    version     2.0;
    format      ascii;
    class       dictionary;
    object      blockMeshDict;
}
// * * * * * * * * * * * * * * * * * * * * * * * * * * * * * * * * * * * * * //

convertToMeters 2e-4;

vertices
(
    (0 0 0)
    (1 0 0)
    (1 1 0)
    (0 1 0)

    (0 0 1)
    (1 0 1)
    (1 1 1)
    (0 1 1)

);

blocks
(
    hex (0 1 2 3 4 5 6 7) (1 1000 1) simpleGrading (1 1 1)
);

edges
(
);

boundary
(
    dielectric_2
    {
        type 		regionCouple;
	shadowRegion	dielectric_2;
	shadowPatch	plasma_2;	
	zone		plasma_2_Zone;
	attached	off;
	master		on;
	isWall		on;
	bridgeOverlap	off;
        faces
        (
            (3 2 6 7)
        );
    }

    dielectric_1
    {
	type            regionCouple;
	shadowRegion    dielectric_1;
	shadowPatch     plasma_1;
	zone            plasma_1_Zone;
	attached        off;
	master          on;
	isWall          on;
	bridgeOverlap   off;
        faces
        (
            (0 4 5 1)
        );
    }

    otherfaces
    {
        type empty;
        faces
        (
	    (0 3 7 4 )   
            (2 1 5 6) 
            (0 1 2 3 )
            (4 7 6 5)
        );
    }
);

mergePatchPairs
(
);

// ************************************************************************* //
