/*--------------------------------*- C++ -*----------------------------------*\
| =========                 |                                                 |
| \\      /  F ield         | foam-extend: Open Source CFD                    |
|  \\    /   O peration     | Version:     4.0                                |
|   \\  /    A nd           | Web:         http://www.foam-extend.org         |
|    \\/     M anipulation  |                                                 |
\*---------------------------------------------------------------------------*/
FoamFile
{
    version     2.0;
    format      ascii;
    class       polyBoundaryMesh;
    location    "constant/polyMesh";
    object      boundary;
}
// * * * * * * * * * * * * * * * * * * * * * * * * * * * * * * * * * * * * * //

3
(
    dielectric_2
    {
        type            regionCouple;
        nFaces          1;
        startFace       1999;
        shadowRegion    dielectric_2;
        shadowPatch     plasma_2;
        zone            plasma_2_Zone;
        attached        off;
        master          on;
        isWall          on;
        bridgeOverlap   off;
    }
    dielectric_1
    {
        type            regionCouple;
        nFaces          1;
        startFace       2000;
        shadowRegion    dielectric_1;
        shadowPatch     plasma_1;
        zone            plasma_1_Zone;
        attached        off;
        master          on;
        isWall          on;
        bridgeOverlap   off;
    }
    otherfaces
    {
        type            empty;
        nFaces          8000;
        startFace       2001;
    }
)


// ************************************************************************* //
