/*--------------------------------*- C++ -*----------------------------------*\
| =========                 |                                                 |
| \\      /  F ield         | foam-extend: Open Source CFD                    |
|  \\    /   O peration     | Version:     4.0                                |
|   \\  /    A nd           | Web:         http://www.foam-extend.org         |
|    \\/     M anipulation  |                                                 |
\*---------------------------------------------------------------------------*/
FoamFile
{
    version     2.0;
    format      ascii;
    class       polyBoundaryMesh;
    location    "constant/polyMesh";
    object      boundary;
}
// * * * * * * * * * * * * * * * * * * * * * * * * * * * * * * * * * * * * * //

6
(
    outer
    {
        type            patch;
        nFaces          4;
        startFace       192;
    }
    ground
    {
        type            patch;
        nFaces          28;
        startFace       196;
    }
    electrode
    {
        type            patch;
        nFaces          28;
        startFace       224;
    }
    plasma_1
    {
        type            regionCouple;
        nFaces          4;
        startFace       252;
        shadowRegion    region0;
        shadowPatch     dielectric_1;
        zone            dielectric_1_Zone;
        attached        off;
        master          off;
        isWall          on;
        bridgeOverlap   off;
    }
    frontandback_d11
    {
        type            wedge;
        nFaces          112;
        startFace       256;
    }
    frontandback_d12
    {
        type            wedge;
        nFaces          112;
        startFace       368;
    }
)


// ************************************************************************* //
