/*--------------------------------*- C++ -*----------------------------------*\
| =========                 |                                                 |
| \\      /  F ield         | foam-extend: Open Source CFD                    |
|  \\    /   O peration     | Version:     4.0                                |
|   \\  /    A nd           | Web:         http://www.foam-extend.org         |
|    \\/     M anipulation  |                                                 |
\*---------------------------------------------------------------------------*/
FoamFile
{
    version     2.0;
    format      ascii;
    class       dictionary;
    object      controlDict;
}
// * * * * * * * * * * * * * * * * * * * * * * * * * * * * * * * * * * * * * //

libs (
      "libfoam.so"
      "liblduSolvers.so"
      "libplasmaCookBook.so"
     );

application     somaFoam;

startFrom       latestTime;

startTime       0;

stopAt          endTime;

endTime         1E-4;

deltaT          5E-12;

writeControl    runTime;

writeInterval   5E-8;

purgeWrite      0;

writeFormat     ascii;

writePrecision  15;

writeCompression uncompressed;

timeFormat      general;

timePrecision   2;

runTimeModifiable yes;

restartCapable on;

OptimisationSwitches
{
    commsType       nonBlocking;
}

DebugSwitches
{
    dimensionSet    0;
}

functions
{
	dumpObjects
	{
		type            writeRegisteredObject;
		functionObjectLibs ("libIOFunctionObjects.so");
		outputControl   outputTime;
		objectNames    ("Sy_electron" "surfC");
	}
	dumpObjects_1
	{
		type            writeRegisteredObject;
		functionObjectLibs ("libIOFunctionObjects.so");
		outputControl   outputTime;
		region			dielectric_1;
		objectNames    ("E");
	}
	boundTemperature
	{
		type            boundField;
		functionObjectLibs ("libsampling.so");
		name   Te;
		minValue	300;
		maxValue	600000;
	}
}

// ************************************************************************* //
