/*--------------------------------*- C++ -*----------------------------------*\
| =========                 |                                                 |
| \\      /  F ield         | foam-extend: Open Source CFD                    |
|  \\    /   O peration     | Version:     4.0                                |
|   \\  /    A nd           | Web:         http://www.foam-extend.org         |
|    \\/     M anipulation  |                                                 |
\*---------------------------------------------------------------------------*/
FoamFile
{
    version     2.0;
    format      ascii;
    class       polyBoundaryMesh;
    location    "constant/polyMesh";
    object      boundary;
}
// * * * * * * * * * * * * * * * * * * * * * * * * * * * * * * * * * * * * * //

4
(
    otherfaces
    {
        type            empty;
        nFaces          72;
        startFace       16;
    }
    plasma
    {
        type            directMappedPatch;
        nFaces          2;
        startFace       88;
        sampleMode      nearestPatchFace;
        sampleRegion    region0;
        samplePatch     dielectric;
        offset          (0 0 0);
    }
    electrode
    {
        type            patch;
        nFaces          1;
        startFace       90;
    }
    ground
    {
        type            patch;
        nFaces          1;
        startFace       91;
    }
)


// ************************************************************************* //
