/*--------------------------------*- C++ -*----------------------------------*\
| =========                 |                                                 |
| \\      /  F ield         | foam-extend: Open Source CFD                    |
|  \\    /   O peration     | Version:     4.0                                |
|   \\  /    A nd           | Web:         http://www.foam-extend.org         |
|    \\/     M anipulation  |                                                 |
\*---------------------------------------------------------------------------*/
FoamFile
{
    version     2.0;
    format      ascii;
    class       dictionary;
    object      fvSolution;
}
// * * * * * * * * * * * * * * * * * * * * * * * * * * * * * * * * * * * * * //

solvers
{
    Ni
    {
        solver          BiCGStab;
        preconditioner  DILU;
        relTol           0.0;
        minIter          1;
    }

    Nin
    {
        solver          BiCGStab;
        preconditioner  DILU;
        relTol           0.0;
        minIter          1;
    }

    Te
    {
        solver          BiCGStab;
        preconditioner  DILU;
        relTol           0.0;
        minIter          1;
    };

    Phi
    {
        solver           BiCGStab;
        preconditioner   Cholesky;
        relTol           0;
        minIter		 1;
    };
}

PIMPLE
{
    momentumPredictor no;
    nOuterCorrectors 1; // used by pimple.loop()
    nCorrectors    1; // used by pimple.correct()
    nNonOrthogonalCorrectors 0; // used by pimple.correct()


    residualControl
    {
        Phi
        {
                tolerance  1e-5;
                relTol      0;
        }
    N_electron
    {
        tolerance 1e-4;
        relTol  0;

    }
    N_Arp1
    {
        tolerance 1e-4;
        relTol  0;

    }
    //N_Arm
    //{
     //   tolerance 1e-4;
      //  relTol  0;

    //}
    Te
    {
        tolerance 1e-4 ;
        relTol 0;
    }
     }
    
}

relaxationFactors
{
    fields
    {
	".*"	0.8;
    ".*Final" 1.0;
    }
    equations
    {
		”.*”           1; 
    }
}

/*PIMPLE
{
    
}*/
