/*--------------------------------*- C++ -*----------------------------------*\
| =========                 |                                                 |
| \\      /  F ield         | foam-extend: Open Source CFD                    |
|  \\    /   O peration     | Version:     4.0                                |
|   \\  /    A nd           | Web:         http://www.foam-extend.org         |
|    \\/     M anipulation  |                                                 |
\*---------------------------------------------------------------------------*/
FoamFile
{
    version     2.0;
    format      ascii;
    class       dictionary;
    object      blockMeshDict;
}
// * * * * * * * * * * * * * * * * * * * * * * * * * * * * * * * * * * * * * //

convertToMeters 1E-2;

vertices
(
    ( 5.08  0.19 -0.2215864878)
    ( 5.23  0.19 -0.2281293959)
    ( 5.38  0.19 -0.2346723040)
    (10.54  0.19 -0.4597483428)
    ( 0.00  4.00  0.0000000000)
    ( 5.08  4.00 -0.2215864878)
    ( 5.23  4.00 -0.2281293959)
    ( 5.38  4.00 -0.2346723040)
    (10.54  4.00 -0.4597483428)
    ( 0.00  6.54  0.0000000000)
    ( 5.08  6.54 -0.2215864878)
    ( 5.23  6.54 -0.2281293959)
    ( 5.38  6.54 -0.2346723040)
    (10.54  6.54 -0.4597483428)
    ( 5.08 10.35 -0.2215864878)
    ( 5.23 10.35 -0.2281293959)
    ( 5.38 10.35 -0.2346723040)
    (10.54 10.35 -0.4597483428)
    ( 5.08  0.19  0.2215864878)
    ( 5.23  0.19  0.2281293959)
    ( 5.38  0.19  0.2346723040)
    (10.54  0.19  0.4597483428)
    ( 5.08  4.00  0.2215864878)
    ( 5.23  4.00  0.2281293959)
    ( 5.38  4.00  0.2346723040)
    (10.54  4.00  0.4597483428)
    ( 5.08  6.54  0.2215864878)
    ( 5.23  6.54  0.2281293959)
    ( 5.38  6.54  0.2346723040)
    (10.54  6.54  0.4597483428)
    ( 5.08 10.35  0.2215864878)
    ( 5.23 10.35  0.2281293959)
    ( 5.38 10.35  0.2346723040)
    (10.54 10.35  0.4597483428)
);

blocks
(
    hex ( 2  3  8  7 20 21 25 24) (100 70 1) simpleGrading (2 0.5 1)
    hex ( 4  5 10  9  4 22 26  9) (100 100 1) simpleGrading (0.5 1 1)
    hex ( 5  6 11 10 22 23 27 26) ( 3 100 1) simpleGrading (1 1 1)
    hex ( 6  7 12 11 23 24 28 27) ( 3 100 1) simpleGrading (1 1 1)
    hex ( 7  8 13 12 24 25 29 28) (100 100 1) simpleGrading (2 1 1)
    hex (12 13 17 16 28 29 33 32) (100 70 1) simpleGrading (2 2 1)
);

edges
( 
);

boundary
(
    electrode
    {
        type patch;
        faces
        (
        ( 9 26 10  9)
        );
    }

    ground
    {
        type patch;
        faces
        (
        ( 4  5 22  4)
        ( 6  7 24 23)
        ( 2 20 24  7)
        ( 2  3 21 20)
        ( 3  8 25 21)
        ( 8 13 29 25)
        (13 17 33 29)
        (16 32 33 17)
        (12 28 32 16)
        (11 27 28 12)
        );
    }
   
    dielectric_1
    {
        type            regionCouple;
        shadowRegion    dielectric_1;
        shadowPatch     plasma_1;
        attached        off;
        isWall          on;
        zone            plasma_1_Zone;
        master          on;
        bridgeOverlap   off;
        faces
        (
        (10 26 27 11)
        );
    }

    dielectric_2
    {
        type            regionCouple;
        shadowRegion    dielectric_2;
        shadowPatch     plasma_2;
        attached        off;
        isWall          on;
        zone            plasma_2_Zone;
        master          on;
        bridgeOverlap   off;
        faces
        (
        ( 5  6 23 22)
        );
    }
 
    far 
    {
        type empty;
        faces
        (
        (4 9 9 4)
        );
    }

    frontandback1
    {
        type wedge;
        faces
        (
            (12 16 17 13)
            ( 2  7  8  3)
            ( 4  9 10  5)
            ( 5 10 11  6)
            ( 6 11 12  7)
            ( 7 12 13  8)
        );
     }
    frontandback2
    {
        type wedge;
        faces
        (
            ( 4 22 26  9)
            (20 21 25 24)
            (22 23 27 26)
            (23 24 28 27)
            (24 25 29 28)
            (28 29 33 32)
        );
     }
);

mergePatchPairs
(
);
