/*--------------------------------*- C++ -*----------------------------------*\
| =========                 |                                                 |
| \\      /  F ield         | foam-extend: Open Source CFD                    |
|  \\    /   O peration     | Version:     4.0                                |
|   \\  /    A nd           | Web:         http://www.foam-extend.org         |
|    \\/     M anipulation  |                                                 |
\*---------------------------------------------------------------------------*/
FoamFile
{
    version     2.0;
    format      ascii;
    class       polyBoundaryMesh;
    location    "constant/polyMesh";
    object      boundary;
}
// * * * * * * * * * * * * * * * * * * * * * * * * * * * * * * * * * * * * * //

7
(
    electrode
    {
        type            patch;
        nFaces          100;
        startFace       68754;
    }
    ground
    {
        type            patch;
        nFaces          686;
        startFace       68854;
    }
    dielectric_1
    {
        type            regionCouple;
        nFaces          3;
        startFace       69540;
        shadowRegion    dielectric_1;
        shadowPatch     plasma_1;
        zone            plasma_1_Zone;
        attached        off;
        master          on;
        isWall          on;
        bridgeOverlap   off;
    }
    dielectric_2
    {
        type            regionCouple;
        nFaces          3;
        startFace       69543;
        shadowRegion    dielectric_2;
        shadowPatch     plasma_2;
        zone            plasma_2_Zone;
        attached        off;
        master          on;
        isWall          on;
        bridgeOverlap   off;
    }
    far
    {
        type            empty;
        nFaces          0;
        startFace       69546;
    }
    frontandback1
    {
        type            wedge;
        nFaces          34600;
        startFace       69546;
    }
    frontandback2
    {
        type            wedge;
        nFaces          34600;
        startFace       104146;
    }
)


// ************************************************************************* //
