/*--------------------------------*- C++ -*----------------------------------*\
| =========                 |                                                 |
| \\      /  F ield         | foam-extend: Open Source CFD                    |
|  \\    /   O peration     | Version:     4.0                                |
|   \\  /    A nd           | Web:         http://www.foam-extend.org         |
|    \\/     M anipulation  |                                                 |
\*---------------------------------------------------------------------------*/
FoamFile
{
    version     2.0;
    format      ascii;
    class       volScalarField;
    location    "0";
    object      epsilon;
}
// * * * * * * * * * * * * * * * * * * * * * * * * * * * * * * * * * * * * * //

dimensions      [ 0 0 0 1 0 0 0 ];

internalField   uniform 4.425e-11;

boundaryField
{

    electrode
    {
        type            zeroGradient;
    }
    plasma_2
    {
        type            plasmaDielectricEpsilonSlave;
        remoteField     epsilon;
        value           uniform 4.425e-11;
    }
    otherfaces
    {
        type            empty;
    }
}


// ************************************************************************* //
