/*--------------------------------*- C++ -*----------------------------------*\
| =========                 |                                                 |
| \\      /  F ield         | foam-extend: Open Source CFD                    |
|  \\    /   O peration     | Version:     4.0                                |
|   \\  /    A nd           | Web:         http://www.foam-extend.org         |
|    \\/     M anipulation  |                                                 |
\*---------------------------------------------------------------------------*/
FoamFile
{
    version     2.0;
    format      ascii;
    class       volScalarField;
    location    "0";
    object      Phi;
}
// * * * * * * * * * * * * * * * * * * * * * * * * * * * * * * * * * * * * * //

dimensions      [ 0 0 0 1 0 0 0 ];

internalField   uniform 100.0;

boundaryField
{
    //outer
    //{
    //    type            zeroGradient;
    //    value           uniform 0.22;
    //}
    //electrode
    //{
    //    type            fixedValue;
    //    value           uniform 0.215;
    //}
	electrode
    {
        type            fixedValue;
        value           uniform 0.0;
    }

    plasma_2
    {
		type            coupledPotential;
		surfaceCharge	off;
     		value           uniform 100.0;
        	remoteField     Phi;
    }
    otherfaces
    {
        type            empty;
    }
}


// ************************************************************************* //
