/*--------------------------------*- C++ -*----------------------------------*\
| =========                 |                                                 |
| \\      /  F ield         | foam-extend: Open Source CFD                    |
|  \\    /   O peration     | Version:     4.0                                |
|   \\  /    A nd           | Web:         http://www.foam-extend.org         |
|    \\/     M anipulation  |                                                 |
\*---------------------------------------------------------------------------*/
FoamFile
{
    version     2.0;
    format      ascii;
    class       volVectorField;
    location    "0";
    object      F_electron;
}
// * * * * * * * * * * * * * * * * * * * * * * * * * * * * * * * * * * * * * //

dimensions      [ 0 0 0 1 0 0 0 ];

internalField   uniform ( 0 0 0 );

boundaryField
{
    electrode
    {
        type            electronThermalFlux;
        sec             0.01;
        refCoeff        0;
    }
    ground
    {
        type            electronThermalFlux;
        sec             0.01;
        refCoeff        0;
    }
    otherfaces
    {
        type            empty;
    }
}


// ************************************************************************* //