/*--------------------------------*- C++ -*----------------------------------*\
| =========                 |                                                 |
| \\      /  F ield         | foam-extend: Open Source CFD                    |
|  \\    /   O peration     | Version:     4.0                                |
|   \\  /    A nd           | Web:         http://www.foam-extend.org         |
|    \\/     M anipulation  |                                                 |
\*---------------------------------------------------------------------------*/
FoamFile
{
    version     2.0;
    format      ascii;
    class       dictionary;
    object      controlDict;
}
// * * * * * * * * * * * * * * * * * * * * * * * * * * * * * * * * * * * * * //

libs (
      "libfoam.so"
      "liblduSolvers.so"
      "libplasmaCookBook.so"
     );

application     plasmaSimFoam;

startFrom       startTime;

startTime       0;

endTime         1E-4;

deltaT          5E-13;

writeControl    runTime;

writeInterval   1E-7;

MaxCo 0.5;

deltaTMax 1E-10;

deltaTMin 1E-15;

purgeWrite      0;

writeFormat     ascii;

writePrecision  15;

writeCompression uncompressed;

timeFormat      general;

timePrecision   15;

runTimeModifiable yes;

restartCapable on;

OptimisationSwitches
{
    commsType       nonBlocking;
}

DebugSwitches
{
    dimensionSet    0;
}

Tolerances
{

}


functions
{	
	dumpObjects_2
	{
		type            writeRegisteredObject;
		functionObjectLibs ("libIOFunctionObjects.so");
		outputControl   outputTime;
		objectNames    ("currentDensity");
	}

	boundTemperature
	{
		type            boundField;
		functionObjectLibs ("libsampling.so");
		name   Te;
		minValue	300;
		maxValue	600000;
	}

	fieldAverage
	{
		type            fieldAverage;
		functionObjectLibs ( "libfieldFunctionObjects.so" );
		enabled         true;
		cleanRestart        true;
		outputControl   timeStep;
		outputControl   outputTime;
		fields
		(
			Te
			{
				mean        on;
				prime2Mean  off;
				base        time;
			}
			N_electron
			{
				mean        on;
				prime2Mean  off;
				base        time;
			}
			N_Arp1
			{
				mean        on;
				prime2Mean  off;
				base        time;
			}
			N_Arm
			{
				mean        on;
				prime2Mean  off;
				base        time;
			}
			N_Ar2p1
			{
				mean        on;
				prime2Mean  off;
				base        time;
			}
			Phi
			{
				mean        on;
				prime2Mean  off;
				base        time;
			}
			E
			{
				mean        on;
				prime2Mean  off;
				base        time;
			}
		);
	}

   probes
   {
        functionObjectLibs  ( "libsampling.so" );
        type    probes;
        name    probes;
        outputControl   timeStep;
        outputInterval  1;

        fields ( totalCurrent Phi);
        probeLocations
        (
            ( 0.00100000004 0.0002500000118743628 0.0002500000118743628)
            ( 0 0.0002500000118743628 0.0002500000118743628)
        );
   }	
}

// ************************************************************************* //

