// ************************************************************************* //


/*--------------------------------*- C++ -*----------------------------------*\
| =========                 |                                                 |
| \\      /  F ield         | foam-extend: Open Source CFD                    |
|  \\    /   O peration     | Version:     4.0                                |
|   \\  /    A nd           | Web:         http://www.foam-extend.org         |
|    \\/     M anipulation  |                                                 |
\*---------------------------------------------------------------------------*/
FoamFile
{
    version     2.0;
    format      ascii;
    class       dictionary;
    object      electroMagnetics;
}
// * * * * * * * * * * * * * * * * * * * * * * * * * * * * * * * * * * * * * //
solutionDomain		plasma;
poissonEquationSolver		explicit;



emcModel none;

noneCoeffs
{
}
//powerCoeffs
//{
//        mode                    continuousFrequencyModulated;
//        initialAmplitude        100;
//        frequency               2E8;
//        bias                    0.0;
//        power		.010 ;
//        controlFrequency        1;
//        dampingFactor           0.01;
//        geometricFactor         1.0;
//        voltageMode             sinusoidal;
//        dutyCycle               1;
//        pulsedMode              classical;
//}


//voltageCoeffs
//{
//	mode 					continuousFrequencyModulated;
//	amplitude				500;
//	frequency				20E6;
//	bias					0;
//}
// ************************************************************************* //

