/*--------------------------------*- C++ -*----------------------------------*\
| =========                 |                                                 |
| \\      /  F ield         | foam-extend: Open Source CFD                    |
|  \\    /   O peration     | Version:     4.0                                |
|   \\  /    A nd           | Web:         http://www.foam-extend.org         |
|    \\/     M anipulation  |                                                 |
\*---------------------------------------------------------------------------*/
FoamFile
{
    version     2.0;
    format      ascii;
    class       volScalarField;
    location    "0";
    object      epsilon;
}
// * * * * * * * * * * * * * * * * * * * * * * * * * * * * * * * * * * * * * //

dimensions      [ 0 0 0 1 0 0 0 ];

internalField   uniform 8.85418782e-12;

boundaryField
{
    ground
    {
        type            zeroGradient;
    }
    electrode
    {
        type            zeroGradient;
    }
    dielectric_1
    {
        type            plasmaDielectricEpsilon;
        remoteField     epsilon;
        value           uniform 8.85418782e-12;
    }
    dielectric_2
    {
        type            plasmaDielectricEpsilon;
        remoteField     epsilon;
        value           uniform 8.85418782e-12;
    }
    far
    {
        type            zeroGradient;
    }
    frontandback1
    {
        type            wedge;
    }
    frontandback2
    {
        type            wedge;
    }
}


// ************************************************************************* //
