/*--------------------------------*- C++ -*----------------------------------*\
| =========                 |                                                 |
| \\      /  F ield         | foam-extend: Open Source CFD                    |
|  \\    /   O peration     | Version:     4.0                                |
|   \\  /    A nd           | Web:         http://www.foam-extend.org         |
|    \\/     M anipulation  |                                                 |
\*---------------------------------------------------------------------------*/
FoamFile
{
    version     2.0;
    format      ascii;
    class       volVectorField;
    location    "0";
    object      F_Arp1;
}
// * * * * * * * * * * * * * * * * * * * * * * * * * * * * * * * * * * * * * //

dimensions      [ 0 0 0 1 0 0 0 ];

internalField   uniform ( 0 0 0 );

boundaryField
{
    ground
    {
        type            ionHGLFlux;
        mobility        mu_Arp1;
        refCoeff        0;
        charge          1;
        molWeight       39.9995;
    }
    electrode
    {
        type            ionHGLFlux;
        mobility        mu_Arp1;
        refCoeff        0;
        charge          1;
        molWeight       39.9995;
    }
    dielectric_1
    {
        type            ionHGLFlux;
        mobility        mu_Arp1;
        refCoeff        0;
        charge          1;
        molWeight       39.9995;
    }
    dielectric_2
    {
        type            ionHGLFlux;
        mobility        mu_Arp1;
        refCoeff        0;
        charge          1;
        molWeight       39.9995;
    }
    far
    {
        type            zeroGradient;
    }
    
    frontandback1
    {
        type            wedge;
    }
    frontandback2
    {
        type            wedge;
    }
}
