/*--------------------------------*- C++ -*----------------------------------*\
| =========                 |                                                 |
| \\      /  F ield         | foam-extend: Open Source CFD                    |
|  \\    /   O peration     | Version:     4.0                                |
|   \\  /    A nd           | Web:         http://www.foam-extend.org         |
|    \\/     M anipulation  |                                                 |
\*---------------------------------------------------------------------------*/
FoamFile
{
    version     2.0;
    format      ascii;
    class       volScalarField;
    location    "0";
    object      Te;
}
// * * * * * * * * * * * * * * * * * * * * * * * * * * * * * * * * * * * * * //

dimensions      [ 0 0 0 1 0 0 0 ];

internalField   uniform 10000;

boundaryField
{
    ground
    {
        type            electronTemperature;
        seec        	0.1;
        Tse     	58000;
        Edepend 	true;
	TFN 		0;
	field_emission	false;
	field_enhancement_factor 0;
	work_function	0;
    }
    electrode
    {
        type            electronTemperature;
        seec        	0.1;
        Tse     	58000;
        Edepend 	true;
	TFN 		0;
	field_emission	false;
	field_enhancement_factor 0;
	work_function	0;
    }
    otherfaces
    {
        type            empty;
    }
}


// ************************************************************************* //
