/*--------------------------------*- C++ -*----------------------------------*\
| =========                 |                                                 |
| \\      /  F ield         | foam-extend: Open Source CFD                    |
|  \\    /   O peration     | Version:     4.0                                |
|   \\  /    A nd           | Web:         http://www.foam-extend.org         |
|    \\/     M anipulation  |                                                 |
\*---------------------------------------------------------------------------*/
FoamFile
{
    version     2.0;
    format      ascii;
    class       polyBoundaryMesh;
    location    "constant/polyMesh";
    object      boundary;
}
// * * * * * * * * * * * * * * * * * * * * * * * * * * * * * * * * * * * * * //

2
(
    otherfaces
    {
        type            empty;
        nFaces          988;
        startFace       246;
    }
    dielectric
    {
        type            directMappedPatch;
        nFaces          2;
        startFace       1234;
        sampleMode      nearestPatchFace;
        sampleRegion    dielectric;
        samplePatch     plasma;
        offset          (0 0 0);
    }
)


// ************************************************************************* //
