/*--------------------------------*- C++ -*----------------------------------*\
| =========                 |                                                 |
| \\      /  F ield         | foam-extend: Open Source CFD                    |
|  \\    /   O peration     | Version:     4.0                                |
|   \\  /    A nd           | Web:         http://www.foam-extend.org         |
|    \\/     M anipulation  |                                                 |
\*---------------------------------------------------------------------------*/
FoamFile
{
    version     2.0;
    format      ascii;
    class       dictionary;
    location    "constant";
    object      reactions;
}
// * * * * * * * * * * * * * * * * * * * * * * * * * * * * * * * * * * * * * //

species
(
    electron
    Hep1
    He2p1
    Hem
    He2m
    He
);

reactions
(
    // R1
    electronImpactInelasticArrheniusReaction
    electron + He = Hem + electron
    (1.3899E+11 0.31 2.30E05)
    (3.1723164E-18)

    // R2
    electronImpactInelasticArrheniusReaction
    electron + Hem = He + electron
    (6.6182E+09 0.31 0)
    (-3.1723164E-18)

    // R3
    electronImpactInelasticArrheniusReaction
    electron + He = Hep1 + electron + electron
    (1.5561E+09 0.68 2.85E+05)
    (3.9413628E-18)

    // R4
    electronImpactInelasticArrheniusReaction
    electron + Hem = Hep1 + electron + electron
    (2.8069E+11 0.6 5.55E+04)
    (7.8026166E-19)

    // R5
    electronImpactInelasticArrheniusReaction
    electron + He2m = He2p1 + electron + electron
    (7.6359E+08 0.71 3.95E+04)
    (5.447412E-19)

    // R6
    irreversibleArrheniusReaction
    electron + He2p1 = Hem + He
    (3.2434E+14 -0.5 0)

    // R11
    irreversibleArrheniusReaction
    electron + He2p1 = He + He
    (6.0220E+11 0 0)

    // R12
    irreversiblethirdBodyArrheniusReaction
    electron + He2p1 + He = He + He + He
    ((7.2529E14 0 0 )( 1 ))

    // R8
    irreversiblethirdBodyArrheniusReaction
    Hem + He + He = He2m + He
    (( 4.71438E8 0 0 ) ( 1 ))

    // R9
    irreversiblethirdBodyArrheniusReaction
    Hep1 + He + He = He2p1 + He
    (( 3.62645E10 0 0 ) ( 1 ))

    // R7
    metastableTwoImpactArrheniusReaction
    Hem + Hem = electron + He + Hep1
    (162597820500 0 0)
    (-2.40326e-18)
    (0.3)

    // R10
    metastableTwoImpactArrheniusReaction
    He2m + He2m = electron + He + He + He2p1
    (903321225000 0 0)
    (-2.19498e-18)
    (0.3)
);
