/*--------------------------------*- C++ -*----------------------------------*\
| =========                 |                                                 |
| \\      /  F ield         | foam-extend: Open Source CFD                    |
|  \\    /   O peration     | Version:     4.0                                |
|   \\  /    A nd           | Web:         http://www.foam-extend.org         |
|    \\/     M anipulation  |                                                 |
\*---------------------------------------------------------------------------*/
FoamFile
{
    version     2.0;
    format      ascii;
    class       dictionary;
    location    "constant";
    object      plasmaProperties;
}
// * * * * * * * * * * * * * * * * * * * * * * * * * * * * * * * * * * * * * //

plasmaModel  mixed<constGasThermoPhysics>;

activeSpecies 3;

backgroundGas He;

multiTimeStep false;

electron
{
	diffusionModel 		einsteinRelation;
	mobilityModel 		eTemp;
	charge 			-1;
	speciesSolution 	true;
	collisionFrequency 	muBased;	//muBased/rrBased
	transportModel 		driftDiffusion;
}
Hep1
{
	diffusionModel 		constant;
	D 			2.9989868421052632e-05;
	mobilityModel 		EON;
	charge 			1;
	speciesSolution 	true;
	transportModel 		driftDiffusion;
}
He2p1
{
	diffusionModel 		constant;
	D 			4.731131578947369e-05;
	mobilityModel 		constant;
	mu 			1.83E-3;
	charge 			1;
	speciesSolution 	true;
	transportModel 		driftDiffusion;
}
Hem
{
	diffusionModel 		constant;
	D 			1.64E-4;
	speciesSolution 	true;
}
He2m
{
	diffusionModel 		constant;
	D 			4.75E-5;
	speciesSolution 	true;
}
He
{
	speciesSolution 	false;
}

energyModel
{
    	electron 		efullImplicit;
	ion 			gasTemp;
	gas 			none;
}

// ************************************************************************* //
